[Format]      =  4.0
[Frequency]   =  0
[Precision]   =  1e-008
[MinAngle]    =  30
[DoSmartMesh] =  1
[Depth]       =  1
[LengthUnits] =  inches
[ProblemType] =  axisymmetric
[Coordinates] =  cartesian
[ACSolver]    =  0
[PrevType]    =  0
[PrevSoln]    =  ""
[Comment]     =  "Add comments here."
[PointProps]   = 0
[BdryProps]   = 1
  <BeginBdry>
    <BdryName> = "New Boundary"
    <BdryType> = 0
    <A_0> = 0
    <A_1> = 0
    <A_2> = 0
    <Phi> = 0
    <c0> = 0
    <c0i> = 0
    <c1> = 0
    <c1i> = 0
    <Mu_ssd> = 0
    <Sigma_ssd> = 0
    <innerangle> = 0
    <outerangle> = 0
  <EndBdry>
[BlockProps]  = 5
  <BeginBlock>
    <BlockName> = "Air"
    <Mu_x> = 1
    <Mu_y> = 1
    <H_c> = 0
    <H_cAngle> = 0
    <J_re> = 0
    <J_im> = 0
    <Sigma> = 0
    <d_lam> = 0
    <Phi_h> = 0
    <Phi_hx> = 0
    <Phi_hy> = 0
    <LamType> = 0
    <LamFill> = 1
    <NStrands> = 0
    <WireD> = 0
    <BHPoints> = 0
  <EndBlock>
  <BeginBlock>
    <BlockName> = "18 AWG"
    <Mu_x> = 1
    <Mu_y> = 1
    <H_c> = 0
    <H_cAngle> = 0
    <J_re> = 0
    <J_im> = 0
    <Sigma> = 58
    <d_lam> = 0
    <Phi_h> = 0
    <Phi_hx> = 0
    <Phi_hy> = 0
    <LamType> = 3
    <LamFill> = 1
    <NStrands> = 1
    <WireD> = 1.0239652968433499
    <BHPoints> = 0
  <EndBlock>
  <BeginBlock>
    <BlockName> = "Ingot iron, annealed"
    <Mu_x> = 1
    <Mu_y> = 1
    <H_c> = 0
    <H_cAngle> = 0
    <J_re> = 0
    <J_im> = 0
    <Sigma> = 10.15
    <d_lam> = 0
    <Phi_h> = 0
    <Phi_hx> = 0
    <Phi_hy> = 0
    <LamType> = 0
    <LamFill> = 1
    <NStrands> = 0
    <WireD> = 0
    <BHPoints> = 32
      0	0
      0.072984889888521698	49.515666666666661
      0.08385352174681851	50.548999999999992
      0.14635190351601829	57.219000000000001
      0.1626541663004869	59.019666666666666
      0.1680882695334599	59.632333333333328
      0.22061889806381388	65.437666666666672
      0.3356136388354235	77.167999999999992
      0.37454876340136006	81.245999999999995
      0.39084422045132722	82.935999999999993
      0.52122621400726477	97.785333333333327
      0.78469730446956931	133.13666666666666
      1.0128921911312923	179.4666666666667
      1.3580770256878687	326.55333333333334
      1.4520598527548207	445.51666666666671
      1.4797806438388399	515.11333333333334
      1.6360059260210866	2179.833333333333
      1.6581064498582383	2710.7666666666664
      1.7083724249351828	4063.0333333333333
      1.8039492310588685	7492.9333333333325
      1.8462955169896693	9413.1000000000004
      1.9050790251776824	12848.333333333332
      1.9644713963587555	17537.333333333332
      1.9738438387370751	18470.333333333332
      2.0274993188988266	24695
      2.0497138199932405	28261
      2.191352493389517	75773
      2.2013004219832695	81487.666666666657
      2.2952361494711493	147326.66666666666
      2.4382775532796543	260916.66666666666
      2.4819242162486139	295570
      2.5141066913919881	321180
  <EndBlock>
  <BeginBlock>
    <BlockName> = "Aluminum, 1100"
    <Mu_x> = 1
    <Mu_y> = 1
    <H_c> = 0
    <H_cAngle> = 0
    <J_re> = 0
    <J_im> = 0
    <Sigma> = 34.450000000000003
    <d_lam> = 0
    <Phi_h> = 0
    <Phi_hx> = 0
    <Phi_hy> = 0
    <LamType> = 0
    <LamFill> = 1
    <NStrands> = 0
    <WireD> = 0
    <BHPoints> = 0
  <EndBlock>
  <BeginBlock>
    <BlockName> = "316 Stainless Steel"
    <Mu_x> = 1
    <Mu_y> = 1
    <H_c> = 0
    <H_cAngle> = 0
    <J_re> = 0
    <J_im> = 0
    <Sigma> = 1.3340000000000001
    <d_lam> = 0
    <Phi_h> = 0
    <Phi_hx> = 0
    <Phi_hy> = 0
    <LamType> = 0
    <LamFill> = 1
    <NStrands> = 0
    <WireD> = 0
    <BHPoints> = 0
  <EndBlock>
[CircuitProps]  = 1
  <BeginCircuit>
    <CircuitName> = "New Circuit"
    <TotalAmps_re> = 30
    <TotalAmps_im> = 0
    <CircuitType> = 1
  <EndCircuit>
[NumPoints] = 46
0	0.35000000000000009	0	1
0	1.6499999999999999	0	1
0.35699999999999998	1.6499999999999999	0	1
0.35699999999999998	0.35000000000000009	0	1
0	-5	0	0
1.5229999999999999	1	0	2
1.5229999999999999	3	0	2
1.528	0.75	0	5
1.4379999999999999	0.75	0	5
2.75	0.75	0	5
2.75	1	0	5
2.75	3.25	0	5
2.75	3	0	5
1.5229999999999999	4	0	3
1.5229999999999999	6	0	3
2.75	6.75	0	5
2.75	6	0	5
2.75	4	0	5
2.75	9.25	0	5
1.5229999999999999	9	0	4
1.5229999999999999	7	0	4
2.75	7	0	5
2.75	9	0	5
1.528	9.25	0	5
1.4379999999999999	9.25	0	5
1.9410000000000001	1	0	2
1.9410000000000001	3	0	2
1.9410000000000001	4	0	3
1.9410000000000001	6	0	3
1.9410000000000001	7	0	4
1.9410000000000001	9	0	4
1.4379999999999999	3.25	0	5
1.4379999999999999	6.75	0	0
1.4379999999999999	6.25	0	0
2.75	6.25	0	0
1.4379999999999999	3.75	0	0
2.75	3.75	0	0
0	14.035	0	0
1.2350000000000001	12.61375569322017	0	0
1.2350000000000001	-3.5787556932201703	0	0
1.4379999999999999	12.336875438614005	0	0
1.4379999999999999	-3.3018754386140055	0	0
1.2346610657765498	13.553446968481403	0	0
1.437663703935788	13.455479927190709	0	0
1.23466941385176	-4.5184430553929866	0	0
1.4377927189063548	-4.4204158583633824	0	0
[NumSegments] = 50
1	2	-1	0	0	0
2	3	-1	0	0	0
0	3	-1	0	0	0
1	0	-1	0	0	0
0	4	-1	0	0	0
6	5	-1	0	0	0
8	41	-1	0	0	0
8	7	-1	0	0	0
7	9	-1	0	0	0
10	25	-1	0	0	0
10	9	-1	0	0	0
11	12	-1	0	0	0
12	26	-1	0	0	0
13	14	-1	0	0	0
16	28	-1	0	0	0
17	27	-1	0	0	0
21	15	-1	0	0	0
20	29	-1	0	0	0
20	19	-1	0	0	0
19	30	-1	0	0	0
22	18	-1	0	0	0
24	23	-1	0	0	0
18	23	-1	0	0	0
24	32	-1	0	0	0
25	5	-1	0	0	0
26	6	-1	0	0	0
26	25	-1	0	0	0
27	13	-1	0	0	0
28	14	-1	0	0	0
29	21	-1	0	0	0
30	22	-1	0	0	0
30	29	-1	0	0	0
28	27	-1	0	0	0
31	8	-1	0	0	0
31	11	-1	0	0	0
32	33	-1	0	0	0
32	15	-1	0	0	0
33	35	-1	0	0	0
35	31	-1	0	0	0
33	34	-1	0	0	0
34	16	-1	0	0	0
35	36	-1	0	0	0
36	17	-1	0	0	0
37	1	-1	0	0	0
39	38	-1	0	0	0
40	24	-1	0	0	0
42	38	-1	0	0	0
43	40	-1	0	0	0
39	44	-1	0	0	0
45	41	-1	0	0	0
[NumArcSegments] = 5
4	44	7.614457101405061	1	1	0	0	1
42	37	7.6144041673205756	1	1	0	0	1
43	42	1.2941746052715701	1	1	0	0	1
44	45	1.2949487081530737	1	1	0	0	1
45	43	127.18201541784963	1	1	0	0	1
[NumHoles] = 0
[NumBlockLabels] = 10
3.4500000000000002	7.5700000000000003	1	0.5	0	0	0	1	0
0.23000000000000001	0.83000000000000007	3	0.02	0	0	1	1	0
1.6599999999999999	4.9699999999999998	2	0.02	1	0	0	500	0
1.6699999999999999	7.9199999999999999	2	0.02	1	0	4	420	0
1.76	2.0099999999999998	2	0.02	1	0	0	500	0
1.335	11.470000000000001	5	-1	0	0	6	1	0
2.1800000000000002	9.1199999999999992	4	-1	0	0	5	1	0
2.1800000000000002	6.1199999999999992	4	-1	0	0	5	1	0
2.1800000000000002	3.1199999999999992	4	-1	0	0	5	1	0
1.2000000000000002	-3.4299999999999997	1	0.5	0	0	0	1	0
